                                  MODFLOW-2005     
      U.S. GEOLOGICAL SURVEY MODULAR FINITE-DIFFERENCE GROUND-WATER FLOW MODEL
                            VERSION 1.12.00 2/3/2017

 LIST FILE: BoxModel_Check.list
                         UNIT    2

 OPENING BoxModel_Check.dis
 FILE TYPE:DIS   UNIT   11   STATUS:OLD    
 FORMAT:FORMATTED              ACCESS:SEQUENTIAL          

 OPENING BoxModel_Check.bas
 FILE TYPE:BAS6   UNIT   13   STATUS:OLD    
 FORMAT:FORMATTED              ACCESS:SEQUENTIAL          

 OPENING BoxModel_Check.bcf
 FILE TYPE:BCF6   UNIT   15   STATUS:OLD    
 FORMAT:FORMATTED              ACCESS:SEQUENTIAL          

 OPENING BoxModel_Check.oc
 FILE TYPE:OC   UNIT   14   STATUS:OLD    
 FORMAT:FORMATTED              ACCESS:SEQUENTIAL          

 OPENING BoxModel_Check.pcg
 FILE TYPE:PCG   UNIT   27   STATUS:OLD    
 FORMAT:FORMATTED              ACCESS:SEQUENTIAL          

 OPENING BoxModel_Check.cbc
 FILE TYPE:DATA(BINARY)   UNIT   53   STATUS:REPLACE
 FORMAT:BINARY                 ACCESS:SEQUENTIAL          

 OPENING BoxModel_Check.hds
 FILE TYPE:DATA(BINARY)   UNIT   51   STATUS:REPLACE
 FORMAT:BINARY                 ACCESS:SEQUENTIAL          

 BAS -- BASIC PACKAGE, VERSION 7, 5/2/2005 INPUT READ FROM UNIT   13
 
 MODFLOW was compiled using mixed precision
 Precision of REAL variables:           6
 Precision of DOUBLE PRECISION variables:          15

 DISCRETIZATION INPUT DATA READ FROM UNIT   11
 # DIS package for  MODFLOW-2005, generated by Flopy.
    1 LAYERS        25 ROWS        25 COLUMNS
    1 STRESS PERIOD(S) IN SIMULATION
 MODEL TIME UNIT IS DAYS
 MODEL LENGTH UNIT IS METERS
  Confining bed flag for each layer:
   0

                     DELR =   100.000    

                     DELC =   100.000    

 TOP ELEVATION OF LAYER 1 =   10.0000    

   MODEL LAYER BOTTOM EL. =   0.00000     FOR LAYER   1


 STRESS PERIOD     LENGTH       TIME STEPS     MULTIPLIER FOR DELT    SS FLAG
 ----------------------------------------------------------------------------
        1         1.000000          1                    1.000         SS

 STEADY-STATE SIMULATION



 
 # BAS6 package for  MODFLOW-2005, generated by Flopy.                           
 THE FREE FORMAT OPTION HAS BEEN SELECTED



                     BOUNDARY ARRAY FOR LAYER   1
 READING ON UNIT   13 WITH FORMAT: (25I10)             

 AQUIFER HEAD WILL BE SET TO  -999.99     AT ALL NO-FLOW NODES (IBOUND=0).



                       INITIAL HEAD FOR LAYER   1
 READING ON UNIT   13 WITH FORMAT: (25E15.6)           
 # OC package for  MODFLOW-2005, generated by Flopy.

 OUTPUT CONTROL IS SPECIFIED ONLY AT TIME STEPS FOR WHICH OUTPUT IS DESIRED
 COMPACT CELL-BY-CELL BUDGET FILES WILL BE WRITTEN
 AUXILIARY DATA WILL BE SAVED IN CELL-BY-CELL BUDGET FILES
 HEAD PRINT FORMAT CODE IS   0    DRAWDOWN PRINT FORMAT CODE IS   0
 HEADS WILL BE SAVED ON UNIT   51    DRAWDOWNS WILL BE SAVED ON UNIT    0

 BCF -- BLOCK-CENTERED FLOW PACKAGE, VERSION 7, 5/2/2005
         INPUT READ FROM UNIT 15
 STEADY-STATE SIMULATION
 CELL-BY-CELL FLOWS WILL BE SAVED ON UNIT 53
 HEAD AT CELLS THAT CONVERT TO DRY= -0.10000E+31
 WETTING CAPABILITY IS NOT ACTIVE
      LAYER  LAYER-TYPE CODE     INTERBLOCK T
      --------------------------------------------
         1            3          0 -- HARMONIC    

 COLUMN TO ROW ANISOTROPY =  0.100000    



              HYD. COND. ALONG ROWS FOR LAYER   1
 READING ON UNIT   15 WITH FORMAT: (25E15.6)           

 PCG -- CONJUGATE-GRADIENT SOLUTION PACKAGE, VERSION 7, 5/2/2005
 # PCG package for  MODFLOW-2005, generated by Flopy.
 MAXIMUM OF     50 CALLS OF SOLUTION ROUTINE
 MAXIMUM OF     30 INTERNAL ITERATIONS PER CALL TO SOLUTION ROUTINE
 MATRIX PRECONDITIONING TYPE :    1



                                    SOLUTION BY THE CONJUGATE-GRADIENT METHOD
                                   -------------------------------------------
                    MAXIMUM NUMBER OF CALLS TO PCG ROUTINE =       50
                        MAXIMUM ITERATIONS PER CALL TO PCG =       30
                               MATRIX PRECONDITIONING TYPE =        1
        RELAXATION FACTOR (ONLY USED WITH PRECOND. TYPE 1) =    0.10000E+01
 PARAMETER OF POLYNOMIAL PRECOND. = 2 (2) OR IS CALCULATED :        0
                         HEAD CHANGE CRITERION FOR CLOSURE =    0.10000E-04
                     RESIDUAL CHANGE CRITERION FOR CLOSURE =    0.10000E-04
            PCG HEAD AND RESIDUAL CHANGE PRINTOUT INTERVAL =      999
     PRINTING FROM SOLVER IS LIMITED(1) OR SUPPRESSED (>1) =        3
                            STEADY-STATE DAMPING PARAMETER =    0.10000E+01
                               TRANSIENT DAMPING PARAMETER =    0.10000E+01
1
                            STRESS PERIOD NO.    1, LENGTH =   1.000000    
                            -----------------------------------------------

                              NUMBER OF TIME STEPS =     1

                               MULTIPLIER FOR DELT =     1.000

                            INITIAL TIME STEP SIZE =   1.000000    
 
 SOLVING FOR HEAD 

 OUTPUT CONTROL FOR STRESS PERIOD    1   TIME STEP    1
    PRINT HEAD FOR ALL LAYERS
    PRINT BUDGET
    SAVE HEAD FOR ALL LAYERS
    SAVE BUDGET
 UBDSV2 SAVING "   CONSTANT HEAD" ON UNIT  53 AT TIME STEP  1, STRESS PERIOD   1
 UBDSV1 SAVING "FLOW RIGHT FACE " ON UNIT  53 AT TIME STEP  1, STRESS PERIOD   1
 UBDSV1 SAVING "FLOW FRONT FACE " ON UNIT  53 AT TIME STEP  1, STRESS PERIOD   1
1
              HEAD IN LAYER   1 AT END OF TIME STEP   1 IN STRESS PERIOD    1
  ---------------------------------------------------------------------------

            1           2           3           4           5           6           7           8           9          10
           11          12          13          14          15          16          17          18          19          20
           21          22          23          24          25
 ........................................................................................................................
   1    15.00       14.79       14.58       14.38       14.17       13.96       13.75       13.54       13.33       13.12    
        12.92       12.71       12.50       12.29       12.08       11.88       11.67       11.46       11.25       11.04    
        10.83       10.62       10.42       10.21       10.00    
   2    15.00       14.79       14.58       14.38       14.17       13.96       13.75       13.54       13.33       13.12    
        12.92       12.71       12.50       12.29       12.08       11.88       11.67       11.46       11.25       11.04    
        10.83       10.62       10.42       10.21       10.00    
   3    15.00       14.79       14.58       14.38       14.17       13.96       13.75       13.54       13.33       13.12    
        12.92       12.71       12.50       12.29       12.08       11.88       11.67       11.46       11.25       11.04    
        10.83       10.62       10.42       10.21       10.00    
   4    15.00       14.79       14.58       14.38       14.17       13.96       13.75       13.54       13.33       13.12    
        12.92       12.71       12.50       12.29       12.08       11.88       11.67       11.46       11.25       11.04    
        10.83       10.62       10.42       10.21       10.00    
   5    15.00       14.79       14.58       14.38       14.17       13.96       13.75       13.54       13.33       13.12    
        12.92       12.71       12.50       12.29       12.08       11.88       11.67       11.46       11.25       11.04    
        10.83       10.62       10.42       10.21       10.00    
   6    15.00       14.79       14.58       14.38       14.17       13.96       13.75       13.54       13.33       13.12    
        12.92       12.71       12.50       12.29       12.08       11.88       11.67       11.46       11.25       11.04    
        10.83       10.62       10.42       10.21       10.00    
   7    15.00       14.79       14.58       14.38       14.17       13.96       13.75       13.54       13.33       13.12    
        12.92       12.71       12.50       12.29       12.08       11.88       11.67       11.46       11.25       11.04    
        10.83       10.62       10.42       10.21       10.00    
   8    15.00       14.79       14.58       14.38       14.17       13.96       13.75       13.54       13.33       13.12    
        12.92       12.71       12.50       12.29       12.08       11.88       11.67       11.46       11.25       11.04    
        10.83       10.62       10.42       10.21       10.00    
   9    15.00       14.79       14.58       14.38       14.17       13.96       13.75       13.54       13.33       13.12    
        12.92       12.71       12.50       12.29       12.08       11.88       11.67       11.46       11.25       11.04    
        10.83       10.62       10.42       10.21       10.00    
  10    15.00       14.79       14.58       14.38       14.17       13.96       13.75       13.54       13.33       13.12    
        12.92       12.71       12.50       12.29       12.08       11.88       11.67       11.46       11.25       11.04    
        10.83       10.62       10.42       10.21       10.00    
  11    15.00       14.79       14.58       14.38       14.17       13.96       13.75       13.54       13.33       13.12    
        12.92       12.71       12.50       12.29       12.08       11.88       11.67       11.46       11.25       11.04    
        10.83       10.62       10.42       10.21       10.00    
  12    15.00       14.79       14.58       14.38       14.17       13.96       13.75       13.54       13.33       13.12    
        12.92       12.71       12.50       12.29       12.08       11.88       11.67       11.46       11.25       11.04    
        10.83       10.62       10.42       10.21       10.00    
  13    15.00       14.79       14.58       14.38       14.17       13.96       13.75       13.54       13.33       13.12    
        12.92       12.71       12.50       12.29       12.08       11.88       11.67       11.46       11.25       11.04    
        10.83       10.62       10.42       10.21       10.00    
  14    15.00       14.79       14.58       14.38       14.17       13.96       13.75       13.54       13.33       13.12    
        12.92       12.71       12.50       12.29       12.08       11.88       11.67       11.46       11.25       11.04    
        10.83       10.62       10.42       10.21       10.00    
  15    15.00       14.79       14.58       14.38       14.17       13.96       13.75       13.54       13.33       13.12    
        12.92       12.71       12.50       12.29       12.08       11.88       11.67       11.46       11.25       11.04    
        10.83       10.62       10.42       10.21       10.00    
  16    15.00       14.79       14.58       14.38       14.17       13.96       13.75       13.54       13.33       13.12    
        12.92       12.71       12.50       12.29       12.08       11.88       11.67       11.46       11.25       11.04    
        10.83       10.62       10.42       10.21       10.00    
  17    15.00       14.79       14.58       14.38       14.17       13.96       13.75       13.54       13.33       13.12    
        12.92       12.71       12.50       12.29       12.08       11.88       11.67       11.46       11.25       11.04    
        10.83       10.62       10.42       10.21       10.00    
  18    15.00       14.79       14.58       14.38       14.17       13.96       13.75       13.54       13.33       13.12    
        12.92       12.71       12.50       12.29       12.08       11.88       11.67       11.46       11.25       11.04    
        10.83       10.62       10.42       10.21       10.00    
  19    15.00       14.79       14.58       14.38       14.17       13.96       13.75       13.54       13.33       13.12    
        12.92       12.71       12.50       12.29       12.08       11.88       11.67       11.46       11.25       11.04    
        10.83       10.62       10.42       10.21       10.00    
  20    15.00       14.79       14.58       14.38       14.17       13.96       13.75       13.54       13.33       13.12    
        12.92       12.71       12.50       12.29       12.08       11.88       11.67       11.46       11.25       11.04    
        10.83       10.62       10.42       10.21       10.00    
  21    15.00       14.79       14.58       14.38       14.17       13.96       13.75       13.54       13.33       13.12    
        12.92       12.71       12.50       12.29       12.08       11.88       11.67       11.46       11.25       11.04    
        10.83       10.62       10.42       10.21       10.00    
  22    15.00       14.79       14.58       14.38       14.17       13.96       13.75       13.54       13.33       13.12    
        12.92       12.71       12.50       12.29       12.08       11.88       11.67       11.46       11.25       11.04    
        10.83       10.62       10.42       10.21       10.00    
  23    15.00       14.79       14.58       14.38       14.17       13.96       13.75       13.54       13.33       13.12    
        12.92       12.71       12.50       12.29       12.08       11.88       11.67       11.46       11.25       11.04    
        10.83       10.62       10.42       10.21       10.00    
  24    15.00       14.79       14.58       14.38       14.17       13.96       13.75       13.54       13.33       13.12    
        12.92       12.71       12.50       12.29       12.08       11.88       11.67       11.46       11.25       11.04    
        10.83       10.62       10.42       10.21       10.00    
  25    15.00       14.79       14.58       14.38       14.17       13.96       13.75       13.54       13.33       13.12    
        12.92       12.71       12.50       12.29       12.08       11.88       11.67       11.46       11.25       11.04    
        10.83       10.62       10.42       10.21       10.00    

 HEAD WILL BE SAVED ON UNIT   51 AT END OF TIME STEP    1, STRESS PERIOD    1
1
  VOLUMETRIC BUDGET FOR ENTIRE MODEL AT END OF TIME STEP    1, STRESS PERIOD   1
  ------------------------------------------------------------------------------

     CUMULATIVE VOLUMES      L**3       RATES FOR THIS TIME STEP      L**3/T
     ------------------                 ------------------------

           IN:                                      IN:
           ---                                      ---
             STORAGE =           0.0000               STORAGE =           0.0000
       CONSTANT HEAD =          52.0833         CONSTANT HEAD =          52.0833

            TOTAL IN =          52.0833              TOTAL IN =          52.0833

          OUT:                                     OUT:
          ----                                     ----
             STORAGE =           0.0000               STORAGE =           0.0000
       CONSTANT HEAD =          52.0833         CONSTANT HEAD =          52.0833

           TOTAL OUT =          52.0833             TOTAL OUT =          52.0833

            IN - OUT =      -3.8147E-06              IN - OUT =      -3.8147E-06

 PERCENT DISCREPANCY =          -0.00     PERCENT DISCREPANCY =          -0.00






         TIME SUMMARY AT END OF TIME STEP    1 IN STRESS PERIOD    1
                    SECONDS     MINUTES      HOURS       DAYS        YEARS
                    -----------------------------------------------------------
   TIME STEP LENGTH  86400.      1440.0      24.000      1.0000     2.73785E-03
 STRESS PERIOD TIME  86400.      1440.0      24.000      1.0000     2.73785E-03
         TOTAL TIME  86400.      1440.0      24.000      1.0000     2.73785E-03
1

 Run end date and time (yyyy/mm/dd hh:mm:ss): 2021/01/11 21:08:16
 Elapsed run time:  0.006 Seconds

