                                  MODFLOW-2005     
      U.S. GEOLOGICAL SURVEY MODULAR FINITE-DIFFERENCE GROUND-WATER FLOW MODEL
                            VERSION 1.11.00 8/8/2013

 LIST FILE: BoxModel_Check.list
                         UNIT    2

 OPENING BoxModel_Check.dis
 FILE TYPE:DIS   UNIT   11   STATUS:OLD    
 FORMAT:FORMATTED              ACCESS:SEQUENTIAL          

 OPENING BoxModel_Check.bas
 FILE TYPE:BAS6   UNIT   13   STATUS:OLD    
 FORMAT:FORMATTED              ACCESS:SEQUENTIAL          

 OPENING BoxModel_Check.lpf
 FILE TYPE:LPF   UNIT   15   STATUS:OLD    
 FORMAT:FORMATTED              ACCESS:SEQUENTIAL          

 OPENING BoxModel_Check.oc
 FILE TYPE:OC   UNIT   14   STATUS:OLD    
 FORMAT:FORMATTED              ACCESS:SEQUENTIAL          

 OPENING BoxModel_Check.pcg
 FILE TYPE:PCG   UNIT   27   STATUS:OLD    
 FORMAT:FORMATTED              ACCESS:SEQUENTIAL          

 OPENING BoxModel_Check.wel
 FILE TYPE:WEL   UNIT   20   STATUS:OLD    
 FORMAT:FORMATTED              ACCESS:SEQUENTIAL          

 OPENING BoxModel_Check.cbc
 FILE TYPE:DATA(BINARY)   UNIT   53   STATUS:REPLACE
 FORMAT:BINARY                 ACCESS:SEQUENTIAL          

 OPENING BoxModel_Check.hds
 FILE TYPE:DATA(BINARY)   UNIT   51   STATUS:REPLACE
 FORMAT:BINARY                 ACCESS:SEQUENTIAL          

 BAS -- BASIC PACKAGE, VERSION 7, 5/2/2005 INPUT READ FROM UNIT   13
 
 MODFLOW was compiled using mixed precision
 Precision of REAL variables:           6
 Precision of DOUBLE PRECISION variables:          15

 DISCRETIZATION INPUT DATA READ FROM UNIT   11
 # DIS package for  MODFLOW-2005, generated by Flopy.
    1 LAYERS        25 ROWS        25 COLUMNS
    1 STRESS PERIOD(S) IN SIMULATION
 MODEL TIME UNIT IS DAYS
 MODEL LENGTH UNIT IS METERS
  Confining bed flag for each layer:
   0

                     DELR =  100.0000    

                     DELC =  100.0000    

 TOP ELEVATION OF LAYER 1 =  10.00000    

   MODEL LAYER BOTTOM EL. =   0.00000     FOR LAYER   1


 STRESS PERIOD     LENGTH       TIME STEPS     MULTIPLIER FOR DELT    SS FLAG
 ----------------------------------------------------------------------------
        1        1.0000000          1                    1.000         SS

 STEADY-STATE SIMULATION



 
 # BAS6 package for  MODFLOW-2005, generated by Flopy.                           
 THE FREE FORMAT OPTION HAS BEEN SELECTED



                     BOUNDARY ARRAY FOR LAYER   1
 READING ON UNIT   13 WITH FORMAT: (25I10)             

 AQUIFER HEAD WILL BE SET TO  -999.99     AT ALL NO-FLOW NODES (IBOUND=0).



                       INITIAL HEAD FOR LAYER   1
 READING ON UNIT   13 WITH FORMAT: (25E15.6)           
 # OC package for  MODFLOW-2005, generated by Flopy.

 OUTPUT CONTROL IS SPECIFIED ONLY AT TIME STEPS FOR WHICH OUTPUT IS DESIRED
 COMPACT CELL-BY-CELL BUDGET FILES WILL BE WRITTEN
 AUXILIARY DATA WILL BE SAVED IN CELL-BY-CELL BUDGET FILES
 HEAD PRINT FORMAT CODE IS   0    DRAWDOWN PRINT FORMAT CODE IS   0
 HEADS WILL BE SAVED ON UNIT   51    DRAWDOWNS WILL BE SAVED ON UNIT    0

 LPF -- LAYER-PROPERTY FLOW PACKAGE, VERSION 7, 5/2/2005
         INPUT READ FROM UNIT   15
 # LPF package for  MODFLOW-2005, generated by Flopy.
 CELL-BY-CELL FLOWS WILL BE SAVED ON UNIT   53
 HEAD AT CELLS THAT CONVERT TO DRY= -1.00000E+30
 No named parameters
 STORAGECOEFFICIENT OPTION:
 Read storage coefficient rather than specific storage

   LAYER FLAGS:
 LAYER       LAYTYP        LAYAVG         CHANI        LAYVKA        LAYWET
 ---------------------------------------------------------------------------
    1             1             0     1.000E+00             0             0

   INTERPRETATION OF LAYER FLAGS:
                        INTERBLOCK     HORIZONTAL    DATA IN
         LAYER TYPE   TRANSMISSIVITY   ANISOTROPY   ARRAY VKA   WETTABILITY
 LAYER      (LAYTYP)      (LAYAVG)       (CHANI)      (LAYVKA)      (LAYWET)
 ---------------------------------------------------------------------------
    1   CONVERTIBLE      HARMONIC     1.000E+00    VERTICAL K  NON-WETTABLE

 WETTING CAPABILITY IS NOT ACTIVE IN ANY LAYER

    HYD. COND. ALONG ROWS =  1.000000     FOR LAYER   1

      VERTICAL HYD. COND. =  1.000000E-01 FOR LAYER   1

 WEL -- WELL PACKAGE, VERSION 7, 5/2/2005 INPUT READ FROM UNIT   20
 # WEL package for  MODFLOW-2005, generated by Flopy.
 No named parameters
 MAXIMUM OF     25 ACTIVE WELLS AT ONE TIME


     0 Well parameters

 PCG -- CONJUGATE-GRADIENT SOLUTION PACKAGE, VERSION 7, 5/2/2005
 # PCG package for  MODFLOW-2005, generated by Flopy.
 MAXIMUM OF     50 CALLS OF SOLUTION ROUTINE
 MAXIMUM OF     30 INTERNAL ITERATIONS PER CALL TO SOLUTION ROUTINE
 MATRIX PRECONDITIONING TYPE :    1



                                    SOLUTION BY THE CONJUGATE-GRADIENT METHOD
                                   -------------------------------------------
                    MAXIMUM NUMBER OF CALLS TO PCG ROUTINE =       50
                        MAXIMUM ITERATIONS PER CALL TO PCG =       30
                               MATRIX PRECONDITIONING TYPE =        1
        RELAXATION FACTOR (ONLY USED WITH PRECOND. TYPE 1) =    0.10000E+01
 PARAMETER OF POLYNOMIAL PRECOND. = 2 (2) OR IS CALCULATED :        0
                         HEAD CHANGE CRITERION FOR CLOSURE =    0.10000E-04
                     RESIDUAL CHANGE CRITERION FOR CLOSURE =    0.10000E-04
            PCG HEAD AND RESIDUAL CHANGE PRINTOUT INTERVAL =      999
     PRINTING FROM SOLVER IS LIMITED(1) OR SUPPRESSED (>1) =        3
                            STEADY-STATE DAMPING PARAMETER =    0.10000E+01
                               TRANSIENT DAMPING PARAMETER =    0.10000E+01
1
                            STRESS PERIOD NO.    1, LENGTH =  1.0000000    
                            -----------------------------------------------

                              NUMBER OF TIME STEPS =     1

                               MULTIPLIER FOR DELT =     1.000

                            INITIAL TIME STEP SIZE =  1.0000000    

 WELL NO.  LAYER   ROW   COL   STRESS RATE         
 --------------------------------------------------
      1      1      1     25     -0.2500    
      2      1      2     25     -0.2500    
      3      1      3     25     -0.2500    
      4      1      4     25     -0.2500    
      5      1      5     25     -0.2500    
      6      1      6     25     -0.2500    
      7      1      7     25     -0.2500    
      8      1      8     25     -0.2500    
      9      1      9     25     -0.2500    
     10      1     10     25     -0.2500    
     11      1     11     25     -0.2500    
     12      1     12     25     -0.2500    
     13      1     13     25     -0.2500    
     14      1     14     25     -0.2500    
     15      1     15     25     -0.2500    
     16      1     16     25     -0.2500    
     17      1     17     25     -0.2500    
     18      1     18     25     -0.2500    
     19      1     19     25     -0.2500    
     20      1     20     25     -0.2500    
     21      1     21     25     -0.2500    
     22      1     22     25     -0.2500    
     23      1     23     25     -0.2500    
     24      1     24     25     -0.2500    
     25      1     25     25     -0.2500    

     25 WELLS
 
 SOLVING FOR HEAD 

 OUTPUT CONTROL FOR STRESS PERIOD    1   TIME STEP    1
    PRINT HEAD FOR ALL LAYERS
    PRINT BUDGET
    SAVE HEAD FOR ALL LAYERS
    SAVE BUDGET
 UBDSV2 SAVING "   CONSTANT HEAD" ON UNIT  53 AT TIME STEP  1, STRESS PERIOD   1
 UBDSV1 SAVING "FLOW RIGHT FACE " ON UNIT  53 AT TIME STEP  1, STRESS PERIOD   1
 UBDSV1 SAVING "FLOW FRONT FACE " ON UNIT  53 AT TIME STEP  1, STRESS PERIOD   1
1
              HEAD IN LAYER   1 AT END OF TIME STEP   1 IN STRESS PERIOD    1
  ---------------------------------------------------------------------------

            1           2           3           4           5           6           7           8           9          10
           11          12          13          14          15          16          17          18          19          20
           21          22          23          24          25
 ........................................................................................................................
   1    7.000       6.964       6.928       6.892       6.856       6.819       6.782       6.745       6.708       6.671    
        6.633       6.595       6.557       6.519       6.481       6.442       6.403       6.364       6.325       6.285    
        6.245       6.205       6.164       6.124       6.083    
   2    7.000       6.964       6.928       6.892       6.856       6.819       6.782       6.745       6.708       6.671    
        6.633       6.595       6.557       6.519       6.481       6.442       6.403       6.364       6.325       6.285    
        6.245       6.205       6.164       6.124       6.083    
   3    7.000       6.964       6.928       6.892       6.856       6.819       6.782       6.745       6.708       6.671    
        6.633       6.595       6.557       6.519       6.481       6.442       6.403       6.364       6.325       6.285    
        6.245       6.205       6.164       6.124       6.083    
   4    7.000       6.964       6.928       6.892       6.856       6.819       6.782       6.745       6.708       6.671    
        6.633       6.595       6.557       6.519       6.481       6.442       6.403       6.364       6.325       6.285    
        6.245       6.205       6.164       6.124       6.083    
   5    7.000       6.964       6.928       6.892       6.856       6.819       6.782       6.745       6.708       6.671    
        6.633       6.595       6.557       6.519       6.481       6.442       6.403       6.364       6.325       6.285    
        6.245       6.205       6.164       6.124       6.083    
   6    7.000       6.964       6.928       6.892       6.856       6.819       6.782       6.745       6.708       6.671    
        6.633       6.595       6.557       6.519       6.481       6.442       6.403       6.364       6.325       6.285    
        6.245       6.205       6.164       6.124       6.083    
   7    7.000       6.964       6.928       6.892       6.856       6.819       6.782       6.745       6.708       6.671    
        6.633       6.595       6.557       6.519       6.481       6.442       6.403       6.364       6.325       6.285    
        6.245       6.205       6.164       6.124       6.083    
   8    7.000       6.964       6.928       6.892       6.856       6.819       6.782       6.745       6.708       6.671    
        6.633       6.595       6.557       6.519       6.481       6.442       6.403       6.364       6.325       6.285    
        6.245       6.205       6.164       6.124       6.083    
   9    7.000       6.964       6.928       6.892       6.856       6.819       6.782       6.745       6.708       6.671    
        6.633       6.595       6.557       6.519       6.481       6.442       6.403       6.364       6.325       6.285    
        6.245       6.205       6.164       6.124       6.083    
  10    7.000       6.964       6.928       6.892       6.856       6.819       6.782       6.745       6.708       6.671    
        6.633       6.595       6.557       6.519       6.481       6.442       6.403       6.364       6.325       6.285    
        6.245       6.205       6.164       6.124       6.083    
  11    7.000       6.964       6.928       6.892       6.856       6.819       6.782       6.745       6.708       6.671    
        6.633       6.595       6.557       6.519       6.481       6.442       6.403       6.364       6.325       6.285    
        6.245       6.205       6.164       6.124       6.083    
  12    7.000       6.964       6.928       6.892       6.856       6.819       6.782       6.745       6.708       6.671    
        6.633       6.595       6.557       6.519       6.481       6.442       6.403       6.364       6.325       6.285    
        6.245       6.205       6.164       6.124       6.083    
  13    7.000       6.964       6.928       6.892       6.856       6.819       6.782       6.745       6.708       6.671    
        6.633       6.595       6.557       6.519       6.481       6.442       6.403       6.364       6.325       6.285    
        6.245       6.205       6.164       6.124       6.083    
  14    7.000       6.964       6.928       6.892       6.856       6.819       6.782       6.745       6.708       6.671    
        6.633       6.595       6.557       6.519       6.481       6.442       6.403       6.364       6.325       6.285    
        6.245       6.205       6.164       6.124       6.083    
  15    7.000       6.964       6.928       6.892       6.856       6.819       6.782       6.745       6.708       6.671    
        6.633       6.595       6.557       6.519       6.481       6.442       6.403       6.364       6.325       6.285    
        6.245       6.205       6.164       6.124       6.083    
  16    7.000       6.964       6.928       6.892       6.856       6.819       6.782       6.745       6.708       6.671    
        6.633       6.595       6.557       6.519       6.481       6.442       6.403       6.364       6.325       6.285    
        6.245       6.205       6.164       6.124       6.083    
  17    7.000       6.964       6.928       6.892       6.856       6.819       6.782       6.745       6.708       6.671    
        6.633       6.595       6.557       6.519       6.481       6.442       6.403       6.364       6.325       6.285    
        6.245       6.205       6.164       6.124       6.083    
  18    7.000       6.964       6.928       6.892       6.856       6.819       6.782       6.745       6.708       6.671    
        6.633       6.595       6.557       6.519       6.481       6.442       6.403       6.364       6.325       6.285    
        6.245       6.205       6.164       6.124       6.083    
  19    7.000       6.964       6.928       6.892       6.856       6.819       6.782       6.745       6.708       6.671    
        6.633       6.595       6.557       6.519       6.481       6.442       6.403       6.364       6.325       6.285    
        6.245       6.205       6.164       6.124       6.083    
  20    7.000       6.964       6.928       6.892       6.856       6.819       6.782       6.745       6.708       6.671    
        6.633       6.595       6.557       6.519       6.481       6.442       6.403       6.364       6.325       6.285    
        6.245       6.205       6.164       6.124       6.083    
  21    7.000       6.964       6.928       6.892       6.856       6.819       6.782       6.745       6.708       6.671    
        6.633       6.595       6.557       6.519       6.481       6.442       6.403       6.364       6.325       6.285    
        6.245       6.205       6.164       6.124       6.083    
  22    7.000       6.964       6.928       6.892       6.856       6.819       6.782       6.745       6.708       6.671    
        6.633       6.595       6.557       6.519       6.481       6.442       6.403       6.364       6.325       6.285    
        6.245       6.205       6.164       6.124       6.083    
  23    7.000       6.964       6.928       6.892       6.856       6.819       6.782       6.745       6.708       6.671    
        6.633       6.595       6.557       6.519       6.481       6.442       6.403       6.364       6.325       6.285    
        6.245       6.205       6.164       6.124       6.083    
  24    7.000       6.964       6.928       6.892       6.856       6.819       6.782       6.745       6.708       6.671    
        6.633       6.595       6.557       6.519       6.481       6.442       6.403       6.364       6.325       6.285    
        6.245       6.205       6.164       6.124       6.083    
  25    7.000       6.964       6.928       6.892       6.856       6.819       6.782       6.745       6.708       6.671    
        6.633       6.595       6.557       6.519       6.481       6.442       6.403       6.364       6.325       6.285    
        6.245       6.205       6.164       6.124       6.083    

 HEAD WILL BE SAVED ON UNIT   51 AT END OF TIME STEP    1, STRESS PERIOD    1
1
  VOLUMETRIC BUDGET FOR ENTIRE MODEL AT END OF TIME STEP    1, STRESS PERIOD   1
  ------------------------------------------------------------------------------

     CUMULATIVE VOLUMES      L**3       RATES FOR THIS TIME STEP      L**3/T
     ------------------                 ------------------------

           IN:                                      IN:
           ---                                      ---
             STORAGE =           0.0000               STORAGE =           0.0000
       CONSTANT HEAD =           6.2500         CONSTANT HEAD =           6.2500
               WELLS =           0.0000                 WELLS =           0.0000

            TOTAL IN =           6.2500              TOTAL IN =           6.2500

          OUT:                                     OUT:
          ----                                     ----
             STORAGE =           0.0000               STORAGE =           0.0000
       CONSTANT HEAD =           0.0000         CONSTANT HEAD =           0.0000
               WELLS =           6.2500                 WELLS =           6.2500

           TOTAL OUT =           6.2500             TOTAL OUT =           6.2500

            IN - OUT =           0.0000              IN - OUT =           0.0000

 PERCENT DISCREPANCY =           0.00     PERCENT DISCREPANCY =           0.00






         TIME SUMMARY AT END OF TIME STEP    1 IN STRESS PERIOD    1
                    SECONDS     MINUTES      HOURS       DAYS        YEARS
                    -----------------------------------------------------------
   TIME STEP LENGTH  86400.      1440.0      24.000     1.00000     2.73785E-03
 STRESS PERIOD TIME  86400.      1440.0      24.000     1.00000     2.73785E-03
         TOTAL TIME  86400.      1440.0      24.000     1.00000     2.73785E-03
1

 Run end date and time (yyyy/mm/dd hh:mm:ss): 2021/01/21 12:45:46
 Elapsed run time:  0.032 Seconds

